LTspice 26.0.1 for Windows
Circuit: C:\users\crguarin\Documents\2026-1\Circuitos Eléctricos 1\Laboratorio\Práctica 1\Informe\Esquemáticos\Circuito 3.net
Start Time: Thu Mar 19 13:58:12 2026
solver = Normal
Maximum thread count: 12
tnom = 27
temp = 27
method = trap
Direct Newton iteration succeeded in finding operating point.
Total elapsed time: 0.028 seconds.

Files loaded:
C:\users\crguarin\Documents\2026-1\Circuitos Eléctricos 1\Laboratorio\Práctica 1\Informe\Esquemáticos\Circuito 3.net

